# File generated by Flopy version 3.3.5 on 01/25/2022 at 16:56:39.
BEGIN options
  DIGITS  7
  PRINT_INPUT
END options

BEGIN continuous  FILEOUT  ex-gwt-keating.sfr.obs.csv
  reach1leakage  SFR  reach1
  reach12leakage  SFR  reach12
  reach24leakage  SFR  reach24
END continuous  FILEOUT  ex-gwt-keating.sfr.obs.csv

