# File generated by Flopy version 3.3.5 on 01/25/2022 at 18:16:04.
BEGIN griddata
  strt
    CONSTANT     600.00000000
END griddata

