# File generated by Flopy version 3.3.5 on 01/25/2022 at 16:56:39.
BEGIN options
  auxiliary  concentration
  BOUNDNAMES
  PRINT_STAGE
  PRINT_FLOWS
  STAGE  FILEOUT  ex-gwt-keating.sfr.bin
  BUDGET  FILEOUT  ex-gwt-keating.sfr.bud
  OBS6  FILEIN  ex-gwt-keating.sfr.obs
  UNIT_CONVERSION   86400.00000000
END options

BEGIN dimensions
  NREACHES  24
END dimensions

BEGIN packagedata
  1  1 1 169      25.00000000       1.00000000  1.00000000E-04    2000.00000000       1.00000000       0.84758400  0.1  1       1.00000000  0       1.00000000  reach1
  2  1 1 170      25.00000000       1.00000000  1.00000000E-04    1999.94000000       1.00000000       0.84758400  0.1  2       1.00000000  0       1.00000000  reach2
  3  1 1 171      25.00000000       1.00000000  1.00000000E-04    1999.88000000       1.00000000       0.84758400  0.1  2       1.00000000  0       1.00000000  reach3
  4  1 1 172      25.00000000       1.00000000  1.00000000E-04    1999.82000000       1.00000000       0.84758400  0.1  2       1.00000000  0       1.00000000  reach4
  5  1 1 173      25.00000000       1.00000000  1.00000000E-04    1999.76000000       1.00000000       0.84758400  0.1  2       1.00000000  0       1.00000000  reach5
  6  1 1 174      25.00000000       1.00000000  1.00000000E-04    1999.70000000       1.00000000       0.84758400  0.1  2       1.00000000  0       1.00000000  reach6
  7  1 1 175      25.00000000       1.00000000  1.00000000E-04    1999.64000000       1.00000000       0.84758400  0.1  2       1.00000000  0       1.00000000  reach7
  8  1 1 176      25.00000000       1.00000000  1.00000000E-04    1999.58000000       1.00000000       0.84758400  0.1  2       1.00000000  0       1.00000000  reach8
  9  1 1 177      25.00000000       1.00000000  1.00000000E-04    1999.52000000       1.00000000       0.84758400  0.1  2       1.00000000  0       1.00000000  reach9
  10  1 1 178      25.00000000       1.00000000  1.00000000E-04    1999.46000000       1.00000000       0.84758400  0.1  2       1.00000000  0       1.00000000  reach10
  11  1 1 179      25.00000000       1.00000000  1.00000000E-04    1999.40000000       1.00000000       0.84758400  0.1  2       1.00000000  0       1.00000000  reach11
  12  1 1 180      25.00000000       1.00000000  1.00000000E-04    1999.34000000       1.00000000       0.84758400  0.1  2       1.00000000  0       1.00000000  reach12
  13  1 1 181      25.00000000       1.00000000  1.00000000E-04    1999.28000000       1.00000000       0.84758400  0.1  2       1.00000000  0       1.00000000  reach13
  14  1 1 182      25.00000000       1.00000000  1.00000000E-04    1999.22000000       1.00000000       0.84758400  0.1  2       1.00000000  0       1.00000000  reach14
  15  1 1 183      25.00000000       1.00000000  1.00000000E-04    1999.16000000       1.00000000       0.84758400  0.1  2       1.00000000  0       1.00000000  reach15
  16  1 1 184      25.00000000       1.00000000  1.00000000E-04    1999.10000000       1.00000000       0.84758400  0.1  2       1.00000000  0       1.00000000  reach16
  17  1 1 185      25.00000000       1.00000000  1.00000000E-04    1999.04000000       1.00000000       0.84758400  0.1  2       1.00000000  0       1.00000000  reach17
  18  1 1 186      25.00000000       1.00000000  1.00000000E-04    1998.98000000       1.00000000       0.84758400  0.1  2       1.00000000  0       1.00000000  reach18
  19  1 1 187      25.00000000       1.00000000  1.00000000E-04    1998.92000000       1.00000000       0.84758400  0.1  2       1.00000000  0       1.00000000  reach19
  20  1 1 188      25.00000000       1.00000000  1.00000000E-04    1998.86000000       1.00000000       0.84758400  0.1  2       1.00000000  0       1.00000000  reach20
  21  1 1 189      25.00000000       1.00000000  1.00000000E-04    1998.80000000       1.00000000       0.84758400  0.1  2       1.00000000  0       1.00000000  reach21
  22  1 1 190      25.00000000       1.00000000  1.00000000E-04    1998.74000000       1.00000000       0.84758400  0.1  2       1.00000000  0       1.00000000  reach22
  23  1 1 191      25.00000000       1.00000000  1.00000000E-04    1998.68000000       1.00000000       0.84758400  0.1  2       1.00000000  0       1.00000000  reach23
  24  1 1 192      25.00000000       1.00000000  1.00000000E-04    1998.62000000       1.00000000       0.84758400  0.1  1       1.00000000  0       1.00000000  reach24
END packagedata

BEGIN connectiondata
  1  -2
  2  -3  1
  3  -4  2
  4  -5  3
  5  -6  4
  6  -7  5
  7  -8  6
  8  -9  7
  9  -10  8
  10  -11  9
  11  -12  10
  12  -13  11
  13  -14  12
  14  -15  13
  15  -16  14
  16  -17  15
  17  -18  16
  18  -19  17
  19  -20  18
  20  -21  19
  21  -22  20
  22  -23  21
  23  -24  22
  24  23
END connectiondata

BEGIN period  1
  1  inflow  43.2
END period  1

BEGIN period  2
  1  inflow  43.2
END period  2

