# File generated by Flopy version 3.3.5 on 01/25/2022 at 16:56:39.
BEGIN options
  SAVE_SPECIFIC_DISCHARGE
  SAVE_SATURATION
END options

BEGIN griddata
  icelltype
    CONSTANT  1
  k  LAYERED
    INTERNAL  FACTOR  1.0
           0.84758400       0.84758400       0.84758400       0.84758400       0.84758400       0.84758400       0.84758400       0.84758400       0.84758400       0.84758400       0.84758400       0.84758400       0.84758400       0.84758400       0.84758400       0.84758400       0.84758400       0.84758400       0.84758400       0.84758400       0.84758400       0.84758400       0.84758400       0.84758400       0.84758400       0.84758400       0.84758400       0.84758400       0.84758400       0.84758400       0.84758400       0.84758400       0.84758400       0.84758400       0.84758400       0.84758400       0.84758400       0.84758400       0.84758400       0.84758400       0.84758400       0.84758400       0.84758400       0.84758400       0.84758400       0.84758400       0.84758400       0.84758400       0.84758400       0.84758400       0.84758400       0.84758400       0.84758400       0.84758400       0.84758400       0.84758400       0.84758400       0.84758400       0.84758400       0.84758400       0.84758400       0.84758400       0.84758400       0.84758400       0.84758400       0.84758400       0.84758400       0.84758400       0.84758400       0.84758400       0.84758400       0.84758400       0.84758400       0.84758400       0.84758400       0.84758400       0.84758400       0.84758400       0.84758400       0.84758400       0.84758400       0.84758400       0.84758400       0.84758400       0.84758400       0.84758400       0.84758400       0.84758400       0.84758400       0.84758400       0.84758400       0.84758400       0.84758400       0.84758400       0.84758400       0.84758400       0.84758400       0.84758400       0.84758400       0.84758400       0.84758400       0.84758400       0.84758400       0.84758400       0.84758400       0.84758400       0.84758400       0.84758400       0.84758400       0.84758400       0.84758400       0.84758400       0.84758400       0.84758400       0.84758400       0.84758400       0.84758400       0.84758400       0.84758400       0.84758400       0.84758400       0.84758400       0.84758400       0.84758400       0.84758400       0.84758400       0.84758400       0.84758400       0.84758400       0.84758400       0.84758400       0.84758400       0.84758400       0.84758400       0.84758400       0.84758400       0.84758400       0.84758400       0.84758400       0.84758400       0.84758400       0.84758400       0.84758400       0.84758400       0.84758400       0.84758400       0.84758400       0.84758400       0.84758400       0.84758400       0.84758400       0.84758400       0.84758400       0.84758400       0.84758400       0.84758400       0.84758400       0.84758400       0.84758400       0.84758400       0.84758400       0.84758400       0.84758400       0.84758400       0.84758400       0.84758400       0.84758400       0.84758400       0.84758400       0.84758400       0.84758400       0.84758400       0.84758400       0.84758400       0.84758400       0.84758400       0.84758400       0.84758400       0.84758400       0.84758400       0.84758400       0.84758400       0.84758400       0.84758400       0.84758400       0.84758400       0.84758400       0.84758400       0.84758400       0.84758400       0.84758400       0.84758400       0.84758400       0.84758400       0.84758400       0.84758400       0.84758400       0.84758400       0.84758400       0.84758400       0.84758400       0.84758400       0.84758400       0.84758400       0.84758400       0.84758400       0.84758400       0.84758400       0.84758400       0.84758400       0.84758400       0.84758400       0.84758400       0.84758400       0.84758400       0.84758400       0.84758400       0.84758400       0.84758400       0.84758400       0.84758400       0.84758400       0.84758400       0.84758400       0.84758400       0.84758400       0.84758400       0.84758400       0.84758400       0.84758400       0.84758400       0.84758400       0.84758400       0.84758400       0.84758400       0.84758400       0.84758400       0.84758400       0.84758400       0.84758400       0.84758400       0.84758400       0.84758400       0.84758400       0.84758400       0.84758400       0.84758400       0.84758400       0.84758400       0.84758400       0.84758400       0.84758400       0.84758400       0.84758400       0.84758400       0.84758400       0.84758400       0.84758400       0.84758400       0.84758400       0.84758400       0.84758400       0.84758400       0.84758400       0.84758400       0.84758400       0.84758400       0.84758400       0.84758400       0.84758400       0.84758400       0.84758400       0.84758400       0.84758400       0.84758400       0.84758400       0.84758400       0.84758400       0.84758400       0.84758400       0.84758400       0.84758400       0.84758400       0.84758400       0.84758400       0.84758400       0.84758400       0.84758400       0.84758400       0.84758400       0.84758400       0.84758400       0.84758400       0.84758400       0.84758400       0.84758400       0.84758400       0.84758400       0.84758400       0.84758400       0.84758400       0.84758400       0.84758400       0.84758400       0.84758400       0.84758400       0.84758400       0.84758400       0.84758400       0.84758400       0.84758400       0.84758400       0.84758400       0.84758400       0.84758400       0.84758400       0.84758400       0.84758400       0.84758400       0.84758400       0.84758400       0.84758400       0.84758400       0.84758400       0.84758400       0.84758400       0.84758400       0.84758400       0.84758400       0.84758400       0.84758400       0.84758400       0.84758400       0.84758400       0.84758400       0.84758400       0.84758400       0.84758400       0.84758400       0.84758400       0.84758400       0.84758400       0.84758400       0.84758400       0.84758400       0.84758400       0.84758400       0.84758400       0.84758400       0.84758400       0.84758400       0.84758400       0.84758400       0.84758400       0.84758400       0.84758400       0.84758400       0.84758400       0.84758400       0.84758400       0.84758400       0.84758400       0.84758400       0.84758400       0.84758400       0.84758400       0.84758400       0.84758400       0.84758400       0.84758400       0.84758400       0.84758400       0.84758400       0.84758400       0.84758400       0.84758400       0.84758400       0.84758400       0.84758400       0.84758400       0.84758400       0.84758400       0.84758400       0.84758400       0.84758400       0.84758400       0.84758400       0.84758400       0.84758400       0.84758400       0.84758400       0.84758400       0.84758400       0.84758400       0.84758400       0.84758400       0.84758400       0.84758400       0.84758400       0.84758400
    INTERNAL  FACTOR  1.0
           0.84758400       0.84758400       0.84758400       0.84758400       0.84758400       0.84758400       0.84758400       0.84758400       0.84758400       0.84758400       0.84758400       0.84758400       0.84758400       0.84758400       0.84758400       0.84758400       0.84758400       0.84758400       0.84758400       0.84758400       0.84758400       0.84758400       0.84758400       0.84758400       0.84758400       0.84758400       0.84758400       0.84758400       0.84758400       0.84758400       0.84758400       0.84758400       0.84758400       0.84758400       0.84758400       0.84758400       0.84758400       0.84758400       0.84758400       0.84758400       0.84758400       0.84758400       0.84758400       0.84758400       0.84758400       0.84758400       0.84758400       0.84758400       0.84758400       0.84758400       0.84758400       0.84758400       0.84758400       0.84758400       0.84758400       0.84758400       0.84758400       0.84758400       0.84758400       0.84758400       0.84758400       0.84758400       0.84758400       0.84758400       0.84758400       0.84758400       0.84758400       0.84758400       0.84758400       0.84758400       0.84758400       0.84758400       0.84758400       0.84758400       0.84758400       0.84758400       0.84758400       0.84758400       0.84758400       0.84758400       0.84758400       0.84758400       0.84758400       0.84758400       0.84758400       0.84758400       0.84758400       0.84758400       0.84758400       0.84758400       0.84758400       0.84758400       0.84758400       0.84758400       0.84758400       0.84758400       0.84758400       0.84758400       0.84758400       0.84758400       0.84758400       0.84758400       0.84758400       0.84758400       0.84758400       0.84758400       0.84758400       0.84758400       0.84758400       0.84758400       0.84758400       0.84758400       0.84758400       0.84758400       0.84758400       0.84758400       0.84758400       0.84758400       0.84758400       0.84758400       0.84758400       0.84758400       0.84758400       0.84758400       0.84758400       0.84758400       0.84758400       0.84758400       0.84758400       0.84758400       0.84758400       0.84758400       0.84758400       0.84758400       0.84758400       0.84758400       0.84758400       0.84758400       0.84758400       0.84758400       0.84758400       0.84758400       0.84758400       0.84758400       0.84758400       0.84758400       0.84758400       0.84758400       0.84758400       0.84758400       0.84758400       0.84758400       0.84758400       0.84758400       0.84758400       0.84758400       0.84758400       0.84758400       0.84758400       0.84758400       0.84758400       0.84758400       0.84758400       0.84758400       0.84758400       0.84758400       0.84758400       0.84758400       0.84758400       0.84758400       0.84758400       0.84758400       0.84758400       0.84758400       0.84758400       0.84758400       0.84758400       0.84758400       0.84758400       0.84758400       0.84758400       0.84758400       0.84758400       0.84758400       0.84758400       0.84758400       0.84758400       0.84758400       0.84758400       0.84758400       0.84758400       0.84758400       0.84758400       0.84758400       0.84758400       0.84758400       0.84758400       0.84758400       0.84758400       0.84758400       0.84758400       0.84758400       0.84758400       0.84758400       0.84758400       0.84758400       0.84758400       0.84758400       0.84758400       0.84758400       0.84758400       0.84758400       0.84758400       0.84758400       0.84758400       0.84758400       0.84758400       0.84758400       0.84758400       0.84758400       0.84758400       0.84758400       0.84758400       0.84758400       0.84758400       0.84758400       0.84758400       0.84758400       0.84758400       0.84758400       0.84758400       0.84758400       0.84758400       0.84758400       0.84758400       0.84758400       0.84758400       0.84758400       0.84758400       0.84758400       0.84758400       0.84758400       0.84758400       0.84758400       0.84758400       0.84758400       0.84758400       0.84758400       0.84758400       0.84758400       0.84758400       0.84758400       0.84758400       0.84758400       0.84758400       0.84758400       0.84758400       0.84758400       0.84758400       0.84758400       0.84758400       0.84758400       0.84758400       0.84758400       0.84758400       0.84758400       0.84758400       0.84758400       0.84758400       0.84758400       0.84758400       0.84758400       0.84758400       0.84758400       0.84758400       0.84758400       0.84758400       0.84758400       0.84758400       0.84758400       0.84758400       0.84758400       0.84758400       0.84758400       0.84758400       0.84758400       0.84758400       0.84758400       0.84758400       0.84758400       0.84758400       0.84758400       0.84758400       0.84758400       0.84758400       0.84758400       0.84758400       0.84758400       0.84758400       0.84758400       0.84758400       0.84758400       0.84758400       0.84758400       0.84758400       0.84758400       0.84758400       0.84758400       0.84758400       0.84758400       0.84758400       0.84758400       0.84758400       0.84758400       0.84758400       0.84758400       0.84758400       0.84758400       0.84758400       0.84758400       0.84758400       0.84758400       0.84758400       0.84758400       0.84758400       0.84758400       0.84758400       0.84758400       0.84758400       0.84758400       0.84758400       0.84758400       0.84758400       0.84758400       0.84758400       0.84758400       0.84758400       0.84758400       0.84758400       0.84758400       0.84758400       0.84758400       0.84758400       0.84758400       0.84758400       0.84758400       0.84758400       0.84758400       0.84758400       0.84758400       0.84758400       0.84758400       0.84758400       0.84758400       0.84758400       0.84758400       0.84758400       0.84758400       0.84758400       0.84758400       0.84758400       0.84758400       0.84758400       0.84758400       0.84758400       0.84758400       0.84758400       0.84758400       0.84758400       0.84758400       0.84758400       0.84758400       0.84758400       0.84758400       0.84758400       0.84758400       0.84758400       0.84758400       0.84758400       0.84758400       0.84758400       0.84758400       0.84758400       0.84758400       0.84758400       0.84758400       0.84758400       0.84758400       0.84758400       0.84758400       0.84758400       0.84758400       0.84758400       0.84758400       0.84758400       0.84758400       0.84758400       0.84758400       0.84758400       0.84758400
    INTERNAL  FACTOR  1.0
           0.84758400       0.84758400       0.84758400       0.84758400       0.84758400       0.84758400       0.84758400       0.84758400       0.84758400       0.84758400       0.84758400       0.84758400       0.84758400       0.84758400       0.84758400       0.84758400       0.84758400       0.84758400       0.84758400       0.84758400       0.84758400       0.84758400       0.84758400       0.84758400       0.84758400       0.84758400       0.84758400       0.84758400       0.84758400       0.84758400       0.84758400       0.84758400       0.84758400       0.84758400       0.84758400       0.84758400       0.84758400       0.84758400       0.84758400       0.84758400       0.84758400       0.84758400       0.84758400       0.84758400       0.84758400       0.84758400       0.84758400       0.84758400       0.84758400       0.84758400       0.84758400       0.84758400       0.84758400       0.84758400       0.84758400       0.84758400       0.84758400       0.84758400       0.84758400       0.84758400       0.84758400       0.84758400       0.84758400       0.84758400       0.84758400       0.84758400       0.84758400       0.84758400       0.84758400       0.84758400       0.84758400       0.84758400       0.84758400       0.84758400       0.84758400       0.84758400       0.84758400       0.84758400       0.84758400       0.84758400       0.84758400       0.84758400       0.84758400       0.84758400       0.84758400       0.84758400       0.84758400       0.84758400       0.84758400       0.84758400       0.84758400       0.84758400       0.84758400       0.84758400       0.84758400       0.84758400       0.84758400       0.84758400       0.84758400       0.84758400       0.84758400       0.84758400       0.84758400       0.84758400       0.84758400       0.84758400       0.84758400       0.84758400       0.84758400       0.84758400       0.84758400       0.84758400       0.84758400       0.84758400       0.84758400       0.84758400       0.84758400       0.84758400       0.84758400       0.84758400       0.84758400       0.84758400       0.84758400       0.84758400       0.84758400       0.84758400       0.84758400       0.84758400       0.84758400       0.84758400       0.84758400       0.84758400       0.84758400       0.84758400       0.84758400       0.84758400       0.84758400       0.84758400       0.84758400       0.84758400       0.84758400       0.84758400       0.84758400       0.84758400       0.84758400       0.84758400       0.84758400       0.84758400       0.84758400       0.84758400       0.84758400       0.84758400       0.84758400       0.84758400       0.84758400       0.84758400       0.84758400       0.84758400       0.84758400       0.84758400       0.84758400       0.84758400       0.84758400       0.84758400       0.84758400       0.84758400       0.84758400       0.84758400       0.84758400       0.84758400       0.84758400       0.84758400       0.84758400       0.84758400       0.84758400       0.84758400       0.84758400       0.84758400       0.84758400       0.84758400       0.84758400       0.84758400       0.84758400       0.84758400       0.84758400       0.84758400       0.84758400       0.84758400       0.84758400       0.84758400       0.84758400       0.84758400       0.84758400       0.84758400       0.84758400       0.84758400       0.84758400       0.84758400       0.84758400       0.84758400       0.84758400       0.84758400       0.84758400       0.84758400       0.84758400       0.84758400       0.84758400       0.84758400       0.84758400       0.84758400       0.84758400       0.84758400       0.84758400       0.84758400       0.84758400       0.84758400       0.84758400       0.84758400       0.84758400       0.84758400       0.84758400       0.84758400       0.84758400       0.84758400       0.84758400       0.84758400       0.84758400       0.84758400       0.84758400       0.84758400       0.84758400       0.84758400       0.84758400       0.84758400       0.84758400       0.84758400       0.84758400       0.84758400       0.84758400       0.84758400       0.84758400       0.84758400       0.84758400       0.84758400       0.84758400       0.84758400       0.84758400       0.84758400       0.84758400       0.84758400       0.84758400       0.84758400       0.84758400       0.84758400       0.84758400       0.84758400       0.84758400       0.84758400       0.84758400       0.84758400       0.84758400       0.84758400       0.84758400       0.84758400       0.84758400       0.84758400       0.84758400       0.84758400       0.84758400       0.84758400       0.84758400       0.84758400       0.84758400       0.84758400       0.84758400       0.84758400       0.84758400       0.84758400       0.84758400       0.84758400       0.84758400       0.84758400       0.84758400       0.84758400       0.84758400       0.84758400       0.84758400       0.84758400       0.84758400       0.84758400       0.84758400       0.84758400       0.84758400       0.84758400       0.84758400       0.84758400       0.84758400       0.84758400       0.84758400       0.84758400       0.84758400       0.84758400       0.84758400       0.84758400       0.84758400       0.84758400       0.84758400       0.84758400       0.84758400       0.84758400       0.84758400       0.84758400       0.84758400       0.84758400       0.84758400       0.84758400       0.84758400       0.84758400       0.84758400       0.84758400       0.84758400       0.84758400       0.84758400       0.84758400       0.84758400       0.84758400       0.84758400       0.84758400       0.84758400       0.84758400       0.84758400       0.84758400       0.84758400       0.84758400       0.84758400       0.84758400       0.84758400       0.84758400       0.84758400       0.84758400       0.84758400       0.84758400       0.84758400       0.84758400       0.84758400       0.84758400       0.84758400       0.84758400       0.84758400       0.84758400       0.84758400       0.84758400       0.84758400       0.84758400       0.84758400       0.84758400       0.84758400       0.84758400       0.84758400       0.84758400       0.84758400       0.84758400       0.84758400       0.84758400       0.84758400       0.84758400       0.84758400       0.84758400       0.84758400       0.84758400       0.84758400       0.84758400       0.84758400       0.84758400       0.84758400       0.84758400       0.84758400       0.84758400       0.84758400       0.84758400       0.84758400       0.84758400       0.84758400       0.84758400       0.84758400       0.84758400       0.84758400       0.84758400       0.84758400       0.84758400       0.84758400       0.84758400       0.84758400       0.84758400       0.84758400       0.84758400       0.84758400       0.84758400       0.84758400       0.84758400
    INTERNAL  FACTOR  1.0
           0.84758400       0.84758400       0.84758400       0.84758400       0.84758400       0.84758400       0.84758400       0.84758400       0.84758400       0.84758400       0.84758400       0.84758400       0.84758400       0.84758400       0.84758400       0.84758400       0.84758400       0.84758400       0.84758400       0.84758400       0.84758400       0.84758400       0.84758400       0.84758400       0.84758400       0.84758400       0.84758400       0.84758400       0.84758400       0.84758400       0.84758400       0.84758400       0.84758400       0.84758400       0.84758400       0.84758400       0.84758400       0.84758400       0.84758400       0.84758400       0.84758400       0.84758400       0.84758400       0.84758400       0.84758400       0.84758400       0.84758400       0.84758400       0.84758400       0.84758400       0.84758400       0.84758400       0.84758400       0.84758400       0.84758400       0.84758400       0.84758400       0.84758400       0.84758400       0.84758400       0.84758400       0.84758400       0.84758400       0.84758400       0.84758400       0.84758400       0.84758400       0.84758400       0.84758400       0.84758400       0.84758400       0.84758400       0.84758400       0.84758400       0.84758400       0.84758400       0.84758400       0.84758400       0.84758400       0.84758400       0.84758400       0.84758400       0.84758400       0.84758400       0.84758400       0.84758400       0.84758400       0.84758400       0.84758400       0.84758400       0.84758400       0.84758400       0.84758400       0.84758400       0.84758400       0.84758400       0.84758400       0.84758400       0.84758400       0.84758400       0.84758400       0.84758400       0.84758400       0.84758400       0.84758400       0.84758400       0.84758400       0.84758400       0.84758400       0.84758400       0.84758400       0.84758400       0.84758400       0.84758400       0.84758400       0.84758400       0.84758400       0.84758400       0.84758400       0.84758400       0.84758400       0.84758400       0.84758400       0.84758400       0.84758400       0.84758400       0.84758400       0.84758400       0.84758400       0.84758400       0.84758400       0.84758400       0.84758400       0.84758400       0.84758400       0.84758400       0.84758400       0.84758400       0.84758400       0.84758400       0.84758400       0.84758400       0.84758400       0.84758400       0.84758400       0.84758400       0.84758400       0.84758400       0.84758400       0.84758400       0.84758400       0.84758400       0.84758400       0.84758400       0.84758400       0.84758400       0.84758400       0.84758400       0.84758400       0.84758400       0.84758400       0.84758400       0.84758400       0.84758400       0.84758400       0.84758400       0.84758400       0.84758400       0.84758400       0.84758400       0.84758400       0.84758400       0.84758400       0.84758400       0.84758400       0.84758400       0.84758400       0.84758400       0.84758400       0.84758400       0.84758400       0.84758400       0.84758400       0.84758400       0.84758400       0.84758400       0.84758400       0.84758400       0.84758400       0.84758400       0.84758400       0.84758400       0.84758400       0.84758400       0.84758400       0.84758400       0.84758400       0.84758400       0.84758400       0.84758400       0.84758400       0.84758400       0.84758400       0.84758400       0.84758400       0.84758400       0.84758400       0.84758400       0.84758400       0.84758400       0.84758400       0.84758400       0.84758400       0.84758400       0.84758400       0.84758400       0.84758400       0.84758400       0.84758400       0.84758400       0.84758400       0.84758400       0.84758400       0.84758400       0.84758400       0.84758400       0.84758400       0.84758400       0.84758400       0.84758400       0.84758400       0.84758400       0.84758400       0.84758400       0.84758400       0.84758400       0.84758400       0.84758400       0.84758400       0.84758400       0.84758400       0.84758400       0.84758400       0.84758400       0.84758400       0.84758400       0.84758400       0.84758400       0.84758400       0.84758400       0.84758400       0.84758400       0.84758400       0.84758400       0.84758400       0.84758400       0.84758400       0.84758400       0.84758400       0.84758400       0.84758400       0.84758400       0.84758400       0.84758400       0.84758400       0.84758400       0.84758400       0.84758400       0.84758400       0.84758400       0.84758400       0.84758400       0.84758400       0.84758400       0.84758400       0.84758400       0.84758400       0.84758400       0.84758400       0.84758400       0.84758400       0.84758400       0.84758400       0.84758400       0.84758400       0.84758400       0.84758400       0.84758400       0.84758400       0.84758400       0.84758400       0.84758400       0.84758400       0.84758400       0.84758400       0.84758400       0.84758400       0.84758400       0.84758400       0.84758400       0.84758400       0.84758400       0.84758400       0.84758400       0.84758400       0.84758400       0.84758400       0.84758400       0.84758400       0.84758400       0.84758400       0.84758400       0.84758400       0.84758400       0.84758400       0.84758400       0.84758400       0.84758400       0.84758400       0.84758400       0.84758400       0.84758400       0.84758400       0.84758400       0.84758400       0.84758400       0.84758400       0.84758400       0.84758400       0.84758400       0.84758400       0.84758400       0.84758400       0.84758400       0.84758400       0.84758400       0.84758400       0.84758400       0.84758400       0.84758400       0.84758400       0.84758400       0.84758400       0.84758400       0.84758400       0.84758400       0.84758400       0.84758400       0.84758400       0.84758400       0.84758400       0.84758400       0.84758400       0.84758400       0.84758400       0.84758400       0.84758400       0.84758400       0.84758400       0.84758400       0.84758400       0.84758400       0.84758400       0.84758400       0.84758400       0.84758400       0.84758400       0.84758400       0.84758400       0.84758400       0.84758400       0.84758400       0.84758400       0.84758400       0.84758400       0.84758400       0.84758400       0.84758400       0.84758400       0.84758400       0.84758400       0.84758400       0.84758400       0.84758400       0.84758400       0.84758400       0.84758400       0.84758400       0.84758400       0.84758400       0.84758400       0.84758400       0.84758400       0.84758400       0.84758400       0.84758400       0.84758400       0.84758400       0.84758400       0.84758400
    INTERNAL  FACTOR  1.0