# File generated by Flopy version 3.3.5 on 01/25/2022 at 18:16:04.
BEGIN options
  auxiliary  concentration
END options

BEGIN dimensions
  MAXBOUND  24
END dimensions

BEGIN period  1
  1 1 169       0.00000000       0.00000000
  1 1 170       0.00000000       0.00000000
  1 1 171       0.00000000       0.00000000
  1 1 172       0.00000000       0.00000000
  1 1 173       0.00000000       0.00000000
  1 1 174       0.00000000       0.00000000
  1 1 175       0.00000000       0.00000000
  1 1 176       0.00000000       0.00000000
  1 1 177       0.00000000       0.00000000
  1 1 178       0.00000000       0.00000000
  1 1 179       0.00000000       0.00000000
  1 1 180       0.00000000       0.00000000
  1 1 181       0.00000000       0.00000000
  1 1 182       0.00000000       0.00000000
  1 1 183       0.00000000       0.00000000
  1 1 184       0.00000000       0.00000000
  1 1 185       0.00000000       0.00000000
  1 1 186       0.00000000       0.00000000
  1 1 187       0.00000000       0.00000000
  1 1 188       0.00000000       0.00000000
  1 1 189       0.00000000       0.00000000
  1 1 190       0.00000000       0.00000000
  1 1 191       0.00000000       0.00000000
  1 1 192       0.00000000       0.00000000
END period  1

BEGIN period  2
  1 1 169       0.00000000       0.00000000
  1 1 170       0.00000000       0.00000000
  1 1 171       0.00000000       0.00000000
  1 1 172       0.00000000       0.00000000
  1 1 173       0.00000000       0.00000000
  1 1 174       0.00000000       0.00000000
  1 1 175       0.00000000       0.00000000
  1 1 176       0.00000000       0.00000000
  1 1 177       0.00000000       0.00000000
  1 1 178       0.00000000       0.00000000
  1 1 179       0.00000000       0.00000000
  1 1 180       0.00000000       0.00000000
  1 1 181       0.00000000       0.00000000
  1 1 182       0.00000000       0.00000000
  1 1 183       0.00000000       0.00000000
  1 1 184       0.00000000       0.00000000
  1 1 185       0.00000000       0.00000000
  1 1 186       0.00000000       0.00000000
  1 1 187       0.00000000       0.00000000
  1 1 188       0.00000000       0.00000000
  1 1 189       0.00000000       0.00000000
  1 1 190       0.00000000       0.00000000
  1 1 191       0.00000000       0.00000000
  1 1 192       0.00000000       0.00000000
END period  2

