# File generated by Flopy version 3.3.5 on 01/25/2022 at 18:16:04.
BEGIN options
  DIGITS  7
  PRINT_INPUT
END options

BEGIN continuous  FILEOUT  ex-gwt-keating.sft.obs.csv
  sftreach1leakage  CONCENTRATION  sftreach1
  sftreach12leakage  CONCENTRATION  sftreach12
  sftreach24leakage  CONCENTRATION  sftreach24
END continuous  FILEOUT  ex-gwt-keating.sft.obs.csv

