# File generated by Flopy version 3.3.5 on 01/25/2022 at 16:56:39.
BEGIN options
END options

BEGIN griddata
  porosity
    CONSTANT       0.10000000
END griddata

