# File generated by Flopy version 3.3.5 on 01/25/2022 at 16:56:39.
BEGIN options
  FLOW_IMBALANCE_CORRECTION
END options

BEGIN packagedata
  GWFHEAD  FILEIN  ../mf6gwf/flow.hds
  GWFBUDGET  FILEIN  ../mf6gwf/flow.bud
  sfr-1  FILEIN  ../mf6gwf/ex-gwt-keating.sfr.bud
END packagedata

