# File generated by Flopy version 3.3.5 on 01/25/2022 at 16:56:39.
BEGIN griddata
  strt
    CONSTANT       0.00000000
END griddata

