# File generated by Flopy version 3.3.5 on 01/26/2022 at 09:22:44.
BEGIN options
  SCHEME  upstream
END options

