# File generated by Flopy version 3.3.5 on 01/26/2022 at 09:22:44.
BEGIN options
  DIGITS  10
  PRINT_INPUT
END options

BEGIN continuous  FILEOUT  trans.obs.csv
  obs1  CONCENTRATION  49 1 119
  obs2  CONCENTRATION  77 1 359
END continuous  FILEOUT  trans.obs.csv

