# File generated by Flopy version 3.3.5 on 01/25/2022 at 16:56:39.
BEGIN options
  XT3D_OFF
END options

BEGIN griddata
  alh
    CONSTANT       1.00000000
  ath1
    CONSTANT       1.00000000
  atv
    CONSTANT       1.00000000
END griddata

